38012
  -OEChem-03182017093D

 22 23  0     0  0  0  0  0  0999 V2000
    0.8843   -2.4393   -0.3831 Cl  0  0  0  0  0  0  0  0  0  0  0  0
    0.1600    2.8900    0.5527 Cl  0  0  0  0  0  0  0  0  0  0  0  0
   -0.4334    0.5756   -2.7643 Cl  0  0  0  0  0  0  0  0  0  0  0  0
    4.0191   -1.9996    0.0661 Cl  0  0  0  0  0  0  0  0  0  0  0  0
   -3.9115   -0.7884    2.2332 Cl  0  0  0  0  0  0  0  0  0  0  0  0
    0.6545    0.2294    0.1012 C   0  0  0  0  0  0  0  0  0  0  0  0
   -0.7730    0.0624   -0.0971 C   0  0  0  0  0  0  0  0  0  0  0  0
    1.5197   -0.8627   -0.0072 C   0  0  0  0  0  0  0  0  0  0  0  0
    1.1709    1.4926    0.4030 C   0  0  0  0  0  0  0  0  0  0  0  0
   -1.3615    0.1994   -1.3542 C   0  0  0  0  0  0  0  0  0  0  0  0
   -1.5612   -0.2431    1.0125 C   0  0  0  0  0  0  0  0  0  0  0  0
    2.8908   -0.6930    0.1850 C   0  0  0  0  0  0  0  0  0  0  0  0
    2.5420    1.6621    0.5952 C   0  0  0  0  0  0  0  0  0  0  0  0
   -2.9380   -0.4115    0.8648 C   0  0  0  0  0  0  0  0  0  0  0  0
   -2.7382    0.0310   -1.5018 C   0  0  0  0  0  0  0  0  0  0  0  0
    3.4020    0.5694    0.4862 C   0  0  0  0  0  0  0  0  0  0  0  0
   -3.5266   -0.2743   -0.3923 C   0  0  0  0  0  0  0  0  0  0  0  0
   -1.1068   -0.3511    1.9958 H   0  0  0  0  0  0  0  0  0  0  0  0
    2.9575    2.6388    0.8305 H   0  0  0  0  0  0  0  0  0  0  0  0
   -3.2130    0.1340   -2.4743 H   0  0  0  0  0  0  0  0  0  0  0  0
    4.4677    0.7204    0.6392 H   0  0  0  0  0  0  0  0  0  0  0  0
   -4.5981   -0.4027   -0.5222 H   0  0  0  0  0  0  0  0  0  0  0  0
  1  8  1  0  0  0  0
  2  9  1  0  0  0  0
  3 10  1  0  0  0  0
  4 12  1  0  0  0  0
  5 14  1  0  0  0  0
  6  7  1  0  0  0  0
  6  8  1  0  0  0  0
  6  9  2  0  0  0  0
  7 10  2  0  0  0  0
  7 11  1  0  0  0  0
  8 12  2  0  0  0  0
  9 13  1  0  0  0  0
 10 15  1  0  0  0  0
 11 14  2  0  0  0  0
 11 18  1  0  0  0  0
 12 16  1  0  0  0  0
 13 16  2  0  0  0  0
 13 19  1  0  0  0  0
 14 17  1  0  0  0  0
 15 17  2  0  0  0  0
 15 20  1  0  0  0  0
 16 21  1  0  0  0  0
 17 22  1  0  0  0  0
M  END
> <PUBCHEM_COMPOUND_CID>
38012

> <PUBCHEM_CONFORMER_RMSD>
0.6

> <PUBCHEM_CONFORMER_DIVERSEORDER>
1
2

> <PUBCHEM_MMFF94_PARTIAL_CHARGES>
20
1 -0.18
10 0.18
11 -0.15
12 0.18
13 -0.15
14 0.18
15 -0.15
16 -0.15
17 -0.15
18 0.15
19 0.15
2 -0.18
20 0.15
21 0.15
22 0.15
3 -0.18
4 -0.18
5 -0.18
8 0.18
9 0.18

> <PUBCHEM_EFFECTIVE_ROTOR_COUNT>
1

> <PUBCHEM_PHARMACOPHORE_FEATURES>
2
6 6 8 9 12 13 16 rings
6 7 10 11 14 15 17 rings

> <PUBCHEM_HEAVY_ATOM_COUNT>
17

> <PUBCHEM_ATOM_DEF_STEREO_COUNT>
0

> <PUBCHEM_ATOM_UDEF_STEREO_COUNT>
0

> <PUBCHEM_BOND_DEF_STEREO_COUNT>
0

> <PUBCHEM_BOND_UDEF_STEREO_COUNT>
0

> <PUBCHEM_ISOTOPIC_ATOM_COUNT>
0

> <PUBCHEM_COMPONENT_COUNT>
1

> <PUBCHEM_CACTVS_TAUTO_COUNT>
1

> <PUBCHEM_CONFORMER_ID>
0000947C00000001

> <PUBCHEM_MMFF94_ENERGY>
48.1342

> <PUBCHEM_FEATURE_SELFOVERLAP>
10.149

> <PUBCHEM_SHAPE_FINGERPRINT>
11471102 22 18410574011011003928
11582403 64 16095922882925274013
12236239 1 17346594205219262193
12491281 212 16415202346405550570
12553582 1 18271811164441607246
12596599 1 17775566446293163686
13140716 1 18341886442173141122
13296908 3 18113053843862600963
13538477 17 16772937250801177519
13965767 371 16556808281670009683
14817 1 12579721204419272093
15219456 202 18186795898298785449
15309172 13 18340201998379116730
15501101 241 18188496881520827377
15775835 57 16988852712702526057
16945 1 18411138073292343880
17357990 137 17059510654298074753
17844478 74 18113333119805519445
1813 80 17917161485768456086
18175812 5 17968089845768843919
18186145 218 18202565115808178174
19049666 15 17969769805152228537
19422 9 17418370320006871326
200 152 18131055031500943383
20600515 1 16588286320378988093
20645477 70 18339348708536493038
21041028 32 18271816661651502464
21061003 4 18411418384327688115
22112679 90 17132104754001455744
22802520 49 17604698972092514052
23175994 123 18336265660836586356
23526113 38 18115005455516575784
23557571 272 17240475922812304660
23559900 14 16950833705607254378
23598291 2 17632576075786798380
2748010 2 18267848528824769000
31174 14 18262242251709006409
3286 77 18409164432930670335
350125 39 17402606849812774976
474 4 17414131823247192096
568465 68 18260830422907300971
6049 1 17967531276613577093
6992083 37 17346591984821585621
77492 1 17346312738895854597
81228 2 17977942389251181368
8272917 22 18201722817192988455

> <PUBCHEM_SHAPE_MULTIPOLES>
359.2
6.32
2.23
1.84
0.34
0.55
0.88
-2.64
-2.3
-1.88
-0.4
1.98
0.13
0.86

> <PUBCHEM_SHAPE_SELFOVERLAP>
735.382

> <PUBCHEM_SHAPE_VOLUME>
202

> <PUBCHEM_COORDINATE_TYPE>
2
5
10

$$$$
